Version 4.1
SHEET 1 3928 1172
WIRE 816 -960 672 -960
WIRE 944 -960 896 -960
WIRE 672 -896 672 -960
WIRE 816 -896 672 -896
WIRE 944 -896 896 -896
WIRE 672 -832 672 -896
WIRE 816 -832 672 -832
WIRE 944 -832 896 -832
WIRE 1392 -832 1328 -832
WIRE 1520 -832 1472 -832
WIRE 672 -768 672 -832
WIRE 816 -768 672 -768
WIRE 944 -768 896 -768
WIRE 1328 -736 1328 -832
WIRE 1328 -736 1200 -736
WIRE 1360 -736 1328 -736
WIRE 1520 -720 1520 -832
WIRE 1520 -720 1424 -720
WIRE 1600 -720 1520 -720
WIRE 672 -704 672 -768
WIRE 672 -704 512 -704
WIRE 944 -704 672 -704
WIRE 1360 -704 1328 -704
WIRE 512 -656 512 -704
WIRE 672 -640 672 -704
WIRE 944 -640 672 -640
WIRE 672 -576 672 -640
WIRE 944 -576 672 -576
WIRE 672 -512 672 -576
WIRE 944 -512 672 -512
WIRE 2080 -496 1648 -496
WIRE 1600 -416 1600 -720
WIRE 1648 -416 1648 -496
WIRE 1648 -416 1600 -416
WIRE 1744 -416 1648 -416
WIRE 1904 -400 1808 -400
WIRE 1744 -384 1728 -384
WIRE 944 -320 848 -320
WIRE 1728 -288 1728 -384
WIRE 1776 -288 1728 -288
WIRE 1904 -288 1904 -400
WIRE 1904 -288 1840 -288
WIRE 496 -272 496 -304
WIRE 608 -272 608 -304
WIRE 1904 -224 1904 -288
WIRE -256 -208 -256 -272
WIRE 1008 -192 1008 -272
WIRE 1136 -192 1136 -272
WIRE 2080 -192 2080 -496
WIRE 2128 -192 2080 -192
WIRE 2272 -176 2192 -176
WIRE 2384 -176 2272 -176
WIRE 496 -160 496 -192
WIRE 608 -160 608 -192
WIRE 1728 -160 1728 -288
WIRE 1776 -160 1728 -160
WIRE 1904 -160 1856 -160
WIRE 1984 -160 1904 -160
WIRE 2096 -160 2064 -160
WIRE 2128 -160 2096 -160
WIRE 1728 -128 1728 -160
WIRE 144 -80 96 -80
WIRE 256 -80 224 -80
WIRE -256 -48 -256 -128
WIRE 1088 -48 816 -48
WIRE 1264 -48 1152 -48
WIRE 448 -32 416 -32
WIRE 592 -32 528 -32
WIRE 2096 -32 2096 -160
WIRE 2144 -32 2096 -32
WIRE 2272 -32 2272 -176
WIRE 2272 -32 2224 -32
WIRE 1728 -16 1728 -48
WIRE -16 32 -48 32
WIRE 96 32 96 -80
WIRE 96 32 64 32
WIRE 144 32 96 32
WIRE 256 48 256 -80
WIRE 256 48 208 48
WIRE 272 48 256 48
WIRE 416 48 416 -32
WIRE 416 48 352 48
WIRE 496 48 416 48
WIRE 144 64 128 64
WIRE 592 64 592 -32
WIRE 592 64 560 64
WIRE 688 64 592 64
WIRE 816 64 816 -48
WIRE 816 64 768 64
WIRE 880 64 816 64
WIRE 1024 64 960 64
WIRE 1088 64 1024 64
WIRE 496 80 464 80
WIRE 1264 80 1264 -48
WIRE 1264 80 1152 80
WIRE 1328 80 1328 -704
WIRE 1328 80 1264 80
WIRE -48 96 -48 32
WIRE 128 96 128 64
WIRE 1024 96 1024 64
WIRE 1088 96 1072 96
WIRE -176 112 -272 112
WIRE -96 112 -176 112
WIRE 464 112 464 80
WIRE -96 160 -144 160
WIRE -272 176 -272 112
WIRE 1072 192 1072 96
WIRE 1264 192 1264 80
WIRE 1264 192 1072 192
WIRE -48 208 -48 176
WIRE 96 208 -48 208
WIRE 416 208 416 48
WIRE 1024 208 1024 160
WIRE -48 240 -48 208
WIRE -176 256 -176 112
WIRE -96 256 -176 256
WIRE -144 304 -144 160
WIRE -96 304 -144 304
WIRE -272 336 -272 256
WIRE -144 336 -144 304
WIRE 96 352 96 288
WIRE -48 384 -48 320
WIRE 416 384 416 288
WIRE 416 384 -48 384
FLAG 464 112 0
FLAG 128 96 0
FLAG 608 -160 0
FLAG 496 -160 0
FLAG 496 -304 +v
FLAG 608 -304 -v
FLAG 176 16 +v
FLAG 528 32 +v
FLAG 176 80 -v
FLAG 528 96 -v
FLAG -144 336 0
FLAG -272 336 0
FLAG 96 352 0
FLAG 1024 208 0
FLAG 1136 -192 0
FLAG 512 -656 0
FLAG 848 -320 0
FLAG 1728 -16 0
FLAG 2384 -176 out
FLAG -256 -48 0
FLAG -256 -272 Vin
FLAG 1120 112 +v
FLAG 1120 48 -v
FLAG 2160 -144 +v
FLAG 2160 -208 -v
FLAG 1776 -432 -v
FLAG 1776 -368 +v
FLAG 1200 -448 +v
FLAG 1072 -1024 +v
FLAG 1008 -192 -v
FLAG 944 -448 +v
FLAG 944 -384 +v
SYMBOL res 80 16 R90
WINDOW 0 0 56 VBottom 2
WINDOW 3 32 56 VTop 2
SYMATTR InstName R1
SYMATTR Value 10k
SYMBOL res 240 -96 R90
WINDOW 0 0 56 VBottom 2
WINDOW 3 32 56 VTop 2
SYMATTR InstName R2
SYMATTR Value 10k
SYMBOL res 368 32 R90
WINDOW 0 0 56 VBottom 2
WINDOW 3 32 56 VTop 2
SYMATTR InstName R3
SYMATTR Value 10k
SYMBOL res 432 -16 R270
WINDOW 0 32 56 VTop 2
WINDOW 3 0 56 VBottom 2
SYMATTR InstName R4
SYMATTR Value 60k
SYMBOL res 432 304 R180
WINDOW 0 36 76 Left 2
WINDOW 3 36 40 Left 2
SYMATTR InstName R5
SYMATTR Value 10k
SYMBOL voltage 496 -288 R0
WINDOW 123 0 0 Left 0
WINDOW 39 0 0 Left 0
SYMATTR InstName V1
SYMATTR Value 10
SYMBOL voltage 608 -288 R0
WINDOW 123 0 0 Left 0
WINDOW 39 0 0 Left 0
SYMATTR InstName V2
SYMATTR Value -10
SYMBOL voltage -272 160 R0
WINDOW 123 24 124 Left 2
WINDOW 39 0 0 Left 0
WINDOW 3 -312 124 Left 2
SYMATTR Value SINE(0 147m 3k)
SYMATTR InstName VIN1
SYMBOL e -48 224 R0
SYMATTR InstName VB1
SYMATTR Value -0.5
SYMBOL e -48 80 R0
WINDOW 3 24 44 Left 2
SYMATTR Value -0.5
SYMATTR InstName VA1
SYMBOL voltage 96 192 R0
WINDOW 123 24 124 Left 2
WINDOW 39 0 0 Left 0
SYMATTR Value2 AC 0
SYMATTR InstName ViCM1
SYMATTR Value ""
SYMBOL OpAmps\\AD8030 176 -16 R0
SYMATTR InstName U1
SYMBOL OpAmps\\AD8030 528 0 R0
SYMATTR InstName U2
SYMBOL OpAmps\\AD8030 1120 144 M180
WINDOW 0 77 44 Left 2
WINDOW 3 41 97 Left 2
SYMATTR InstName U3
SYMBOL res 672 48 M90
WINDOW 0 0 56 VBottom 2
WINDOW 3 32 56 VTop 2
SYMATTR InstName R6
SYMATTR Value 10K
SYMBOL res 864 48 M90
WINDOW 0 0 56 VBottom 2
WINDOW 3 32 56 VTop 2
SYMATTR InstName R7
SYMATTR Value 10K
SYMBOL cap 1152 -64 R90
WINDOW 0 0 32 VBottom 2
WINDOW 3 15 -2 VTop 2
SYMATTR InstName C1
SYMATTR Value 7.5nF
SYMBOL cap 1040 160 R180
WINDOW 0 24 56 Left 2
WINDOW 3 24 8 Left 2
SYMATTR InstName C2
SYMATTR Value 3.75nF
SYMBOL res 1488 -848 R90
WINDOW 0 0 56 VBottom 2
WINDOW 3 32 56 VTop 2
SYMATTR InstName RF1
SYMATTR Value 10k
SYMBOL res 800 -784 M90
WINDOW 0 2 47 VBottom 2
WINDOW 3 -22 116 VTop 2
SYMATTR InstName RG1
SYMATTR Value 3.3k
SYMBOL res 800 -848 M90
WINDOW 0 0 48 VBottom 2
WINDOW 3 -19 109 VTop 2
SYMATTR InstName RG2
SYMATTR Value 4.7k
SYMBOL res 800 -912 M90
WINDOW 0 8 44 VBottom 2
WINDOW 3 -19 110 VTop 2
SYMATTR InstName RG3
SYMATTR Value 6.66k
SYMBOL res 800 -976 M90
WINDOW 0 -24 45 VBottom 2
WINDOW 3 -24 102 VTop 2
SYMATTR InstName RG4
SYMATTR Value 10k
SYMBOL Switches\\ADG1608 1072 -704 R0
SYMATTR InstName U4
SYMBOL OpAmps\\opamp 1392 -784 R0
SYMATTR InstName U5
SYMATTR SpiceLine2 GBW=125Meg
SYMBOL OpAmps\\AD8030 1776 -336 M180
SYMATTR InstName U6
SYMBOL OpAmps\\AD8030 2160 -112 M180
SYMATTR InstName U7
SYMBOL diode 1840 -304 R90
WINDOW 0 0 32 VBottom 2
WINDOW 3 32 32 VTop 2
SYMATTR InstName D1
SYMBOL diode 1920 -160 R180
WINDOW 0 24 64 Left 2
WINDOW 3 41 29 Left 2
SYMATTR InstName D2
SYMBOL res 1744 -32 R180
WINDOW 0 36 76 Left 2
WINDOW 3 36 40 Left 2
SYMATTR InstName R8
SYMATTR Value 10k
SYMBOL res 1872 -176 R90
WINDOW 0 0 56 VBottom 2
WINDOW 3 32 56 VTop 2
SYMATTR InstName R9
SYMATTR Value 10k
SYMBOL res 2080 -176 R90
WINDOW 0 0 56 VBottom 2
WINDOW 3 32 56 VTop 2
SYMATTR InstName R10
SYMATTR Value 10k
SYMBOL res 2240 -48 R90
WINDOW 0 0 56 VBottom 2
WINDOW 3 32 56 VTop 2
SYMATTR InstName R11
SYMATTR Value 20k
SYMBOL voltage -256 -224 R0
WINDOW 123 24 124 Left 2
WINDOW 39 0 0 Left 0
WINDOW 3 -312 124 Left 2
SYMATTR Value SINE(0 147m 3k)
SYMATTR InstName VIN2
TEXT 112 -408 Left 2 ;Amplificarea 1, sw 1 activ
TEXT 120 -296 Left 2 !.libopamp.sub
TEXT 120 -344 Left 2 !.tran 5m
