Version 4.1
SHEET 1 880 680
WIRE -272 -208 -416 -208
WIRE -144 -208 -192 -208
WIRE -416 -144 -416 -208
WIRE -272 -144 -416 -144
WIRE -144 -144 -192 -144
WIRE -416 -80 -416 -144
WIRE -272 -80 -416 -80
WIRE -144 -80 -192 -80
WIRE 304 -80 240 -80
WIRE 432 -80 384 -80
WIRE 768 -64 768 -112
WIRE -416 -16 -416 -80
WIRE -272 -16 -416 -16
WIRE -144 -16 -192 -16
WIRE 240 16 240 -80
WIRE 240 16 112 16
WIRE 272 16 240 16
WIRE 432 32 432 -80
WIRE 432 32 336 32
WIRE 496 32 432 32
WIRE -416 48 -416 -16
WIRE -416 48 -576 48
WIRE -144 48 -416 48
WIRE 272 48 240 48
WIRE 768 80 768 16
WIRE -576 96 -576 48
WIRE -416 112 -416 48
WIRE -144 112 -416 112
WIRE 240 144 240 48
WIRE -416 176 -416 112
WIRE -144 176 -416 176
WIRE -416 240 -416 176
WIRE -144 240 -416 240
WIRE -144 304 -240 304
WIRE 576 336 576 304
WIRE 672 336 672 304
WIRE -144 368 -240 368
WIRE -144 432 -240 432
WIRE 576 480 576 416
WIRE 672 480 672 416
WIRE -80 560 -80 480
WIRE 48 560 48 480
FLAG 672 480 0
FLAG 576 480 0
FLAG 576 304 +VCC
FLAG 672 304 -VCC
FLAG 240 144 VinDC
FLAG 496 32 out
FLAG 768 80 0
FLAG 768 -112 VinDC
FLAG -80 560 -VCC
FLAG 48 560 0
FLAG -576 96 0
FLAG -240 432 0
FLAG -240 368 0
FLAG -16 -272 +VCC
FLAG 112 304 +VCC
FLAG 304 0 +VCC
FLAG 304 64 -VCC
FLAG -240 304 +VCC
DATAFLAG 240 -16 ""
DATAFLAG 480 32 ""
SYMBOL res 400 -96 R90
WINDOW 0 0 56 VBottom 2
WINDOW 3 32 56 VTop 2
SYMATTR InstName RF1
SYMATTR Value 10k
SYMBOL voltage 576 320 R0
WINDOW 123 0 0 Left 0
WINDOW 39 0 0 Left 0
SYMATTR InstName V1
SYMATTR Value 5
SYMBOL voltage 672 320 R0
WINDOW 123 0 0 Left 0
WINDOW 39 0 0 Left 0
SYMATTR InstName V2
SYMATTR Value -5
SYMBOL voltage 768 -80 R0
WINDOW 123 24 124 Left 2
WINDOW 39 0 0 Left 0
WINDOW 3 24 152 Left 2
SYMATTR Value2 AC 1
SYMATTR Value 0
SYMATTR InstName V3
SYMBOL res -288 -32 M90
WINDOW 0 2 47 VBottom 2
WINDOW 3 -22 116 VTop 2
SYMATTR InstName RG1
SYMATTR Value 3.3k
SYMBOL res -288 -96 M90
WINDOW 0 0 48 VBottom 2
WINDOW 3 -19 109 VTop 2
SYMATTR InstName RG2
SYMATTR Value 4.7k
SYMBOL res -288 -160 M90
WINDOW 0 8 44 VBottom 2
WINDOW 3 -19 110 VTop 2
SYMATTR InstName RG3
SYMATTR Value 6.66k
SYMBOL res -288 -224 M90
WINDOW 0 -24 45 VBottom 2
WINDOW 3 -24 102 VTop 2
SYMATTR InstName RG4
SYMATTR Value 10k
SYMBOL Switches\\ADG1608 -16 48 R0
SYMATTR InstName U1
SYMBOL OpAmps\\AD8030 304 -32 R0
SYMATTR InstName U2
TEXT 560 200 Left 2 ;Alimentare
TEXT 640 -240 Left 2 ;Tensiunea de intrare
TEXT 360 -232 Left 2 !.op
