Version 4.1
SHEET 1 880 680
WIRE -336 -288 -480 -288
WIRE -208 -288 -256 -288
WIRE -480 -224 -480 -288
WIRE -336 -224 -480 -224
WIRE -208 -224 -256 -224
WIRE -480 -160 -480 -224
WIRE -336 -160 -480 -160
WIRE -208 -160 -256 -160
WIRE 240 -160 176 -160
WIRE 368 -160 320 -160
WIRE 704 -144 704 -192
WIRE -480 -96 -480 -160
WIRE -336 -96 -480 -96
WIRE -208 -96 -256 -96
WIRE 176 -64 176 -160
WIRE 176 -64 48 -64
WIRE 208 -64 176 -64
WIRE 368 -48 368 -160
WIRE 368 -48 272 -48
WIRE 432 -48 368 -48
WIRE -480 -32 -480 -96
WIRE -480 -32 -640 -32
WIRE -208 -32 -480 -32
WIRE 208 -32 176 -32
WIRE 704 0 704 -64
WIRE -640 16 -640 -32
WIRE -480 32 -480 -32
WIRE -208 32 -480 32
WIRE 176 64 176 -32
WIRE -480 96 -480 32
WIRE -208 96 -480 96
WIRE -480 160 -480 96
WIRE -208 160 -480 160
WIRE -208 224 -304 224
WIRE 512 256 512 224
WIRE 608 256 608 224
WIRE -208 288 -304 288
WIRE -208 352 -304 352
WIRE 512 400 512 336
WIRE 608 400 608 336
WIRE -144 480 -144 400
WIRE -16 480 -16 400
FLAG 608 400 0
FLAG 512 400 0
FLAG 512 224 +VCC
FLAG 608 224 -VCC
FLAG 176 64 VinDC
FLAG 432 -48 out
FLAG 704 0 0
FLAG 704 -192 VinDC
FLAG -144 480 -VCC
FLAG -16 480 0
FLAG -640 16 0
FLAG -304 352 0
FLAG -80 -352 +VCC
FLAG 48 224 +VCC
FLAG -304 224 0
FLAG 240 -80 +VCC
FLAG 240 -16 -VCC
FLAG -304 288 +VCC
DATAFLAG 176 -96 ""
DATAFLAG 400 -48 ""
SYMBOL res 336 -176 R90
WINDOW 0 0 56 VBottom 2
WINDOW 3 32 56 VTop 2
SYMATTR InstName RF1
SYMATTR Value 10k
SYMBOL voltage 512 240 R0
WINDOW 123 0 0 Left 0
WINDOW 39 0 0 Left 0
SYMATTR InstName V1
SYMATTR Value 5
SYMBOL voltage 608 240 R0
WINDOW 123 0 0 Left 0
WINDOW 39 0 0 Left 0
SYMATTR InstName V2
SYMATTR Value -5
SYMBOL voltage 704 -160 R0
WINDOW 123 24 124 Left 2
WINDOW 39 0 0 Left 0
WINDOW 3 24 152 Left 2
SYMATTR Value2 AC 1
SYMATTR Value 0
SYMATTR InstName V3
SYMBOL res -352 -112 M90
WINDOW 0 2 47 VBottom 2
WINDOW 3 -22 116 VTop 2
SYMATTR InstName RG1
SYMATTR Value 3.3k
SYMBOL res -352 -176 M90
WINDOW 0 0 48 VBottom 2
WINDOW 3 -19 109 VTop 2
SYMATTR InstName RG2
SYMATTR Value 4.7k
SYMBOL res -352 -240 M90
WINDOW 0 8 44 VBottom 2
WINDOW 3 -19 110 VTop 2
SYMATTR InstName RG3
SYMATTR Value 6.66k
SYMBOL res -352 -304 M90
WINDOW 0 -24 45 VBottom 2
WINDOW 3 -24 102 VTop 2
SYMATTR InstName RG4
SYMATTR Value 10k
SYMBOL Switches\\ADG1608 -80 -32 R0
SYMATTR InstName U1
SYMBOL OpAmps\\AD8030 240 -112 R0
SYMATTR InstName U2
TEXT 496 120 Left 2 ;Alimentare
TEXT 576 -320 Left 2 ;Tensiunea de intrare
TEXT 296 -312 Left 2 !.op
