Version 4.1
SHEET 1 900 680
WIRE -256 -256 -400 -256
WIRE -128 -256 -176 -256
WIRE -400 -192 -400 -256
WIRE -256 -192 -400 -192
WIRE -128 -192 -176 -192
WIRE -400 -128 -400 -192
WIRE -256 -128 -400 -128
WIRE -128 -128 -176 -128
WIRE 320 -128 256 -128
WIRE 448 -128 400 -128
WIRE 784 -112 784 -160
WIRE -400 -64 -400 -128
WIRE -256 -64 -400 -64
WIRE -128 -64 -176 -64
WIRE 256 -32 256 -128
WIRE 256 -32 128 -32
WIRE 288 -32 256 -32
WIRE 448 -16 448 -128
WIRE 448 -16 352 -16
WIRE 512 -16 448 -16
WIRE -400 0 -400 -64
WIRE -400 0 -560 0
WIRE -128 0 -400 0
WIRE 288 0 256 0
WIRE 784 32 784 -32
WIRE -560 48 -560 0
WIRE -400 64 -400 0
WIRE -128 64 -400 64
WIRE 256 96 256 0
WIRE -400 128 -400 64
WIRE -128 128 -400 128
WIRE -400 192 -400 128
WIRE -128 192 -400 192
WIRE -128 256 -224 256
WIRE 592 288 592 256
WIRE 688 288 688 256
WIRE -128 320 -224 320
WIRE -128 384 -224 384
WIRE 592 432 592 368
WIRE 688 432 688 368
WIRE -64 512 -64 432
WIRE 64 512 64 432
FLAG 688 432 0
FLAG 592 432 0
FLAG 592 256 +VCC
FLAG 688 256 -VCC
FLAG 256 96 VinDC
FLAG 512 -16 out
FLAG 784 32 0
FLAG 784 -160 VinDC
FLAG -64 512 -VCC
FLAG 64 512 0
FLAG -560 48 0
FLAG -224 384 0
FLAG -224 320 0
FLAG 0 -320 +VCC
FLAG 128 256 +VCC
FLAG -224 256 0
FLAG 320 -48 +VCC
FLAG 320 16 -VCC
DATAFLAG 480 -16 ""
DATAFLAG 256 64 ""
SYMBOL res 416 -144 R90
WINDOW 0 0 56 VBottom 2
WINDOW 3 32 56 VTop 2
SYMATTR InstName RF1
SYMATTR Value 10k
SYMBOL voltage 592 272 R0
WINDOW 123 0 0 Left 0
WINDOW 39 0 0 Left 0
SYMATTR InstName V1
SYMATTR Value 5
SYMBOL voltage 688 272 R0
WINDOW 123 0 0 Left 0
WINDOW 39 0 0 Left 0
SYMATTR InstName V2
SYMATTR Value -5
SYMBOL voltage 784 -128 R0
WINDOW 123 24 124 Left 2
WINDOW 39 0 0 Left 0
WINDOW 3 24 152 Left 2
SYMATTR Value2 AC 1
SYMATTR Value 0
SYMATTR InstName V3
SYMBOL res -272 -80 M90
WINDOW 0 2 47 VBottom 2
WINDOW 3 -22 116 VTop 2
SYMATTR InstName RG1
SYMATTR Value 3.3k
SYMBOL res -272 -144 M90
WINDOW 0 0 48 VBottom 2
WINDOW 3 -19 109 VTop 2
SYMATTR InstName RG2
SYMATTR Value 4.7k
SYMBOL res -272 -208 M90
WINDOW 0 8 44 VBottom 2
WINDOW 3 -19 110 VTop 2
SYMATTR InstName RG3
SYMATTR Value 6.66k
SYMBOL res -272 -272 M90
WINDOW 0 -24 45 VBottom 2
WINDOW 3 -24 102 VTop 2
SYMATTR InstName RG4
SYMATTR Value 10k
SYMBOL Switches\\ADG1608 0 0 R0
SYMATTR InstName U1
SYMBOL OpAmps\\AD8030 320 -80 R0
SYMATTR InstName U2
TEXT 576 152 Left 2 ;Alimentare
TEXT 656 -288 Left 2 ;Tensiunea de intrare
TEXT 376 -280 Left 2 !.op
