Version 4.1
SHEET 1 1496 1428
WIRE 160 -32 16 -32
WIRE 288 -32 240 -32
WIRE 16 32 16 -32
WIRE 160 32 16 32
WIRE 288 32 240 32
WIRE 16 96 16 32
WIRE 160 96 16 96
WIRE 288 96 240 96
WIRE 736 96 672 96
WIRE 864 96 816 96
WIRE 1200 112 1200 64
WIRE 16 160 16 96
WIRE 160 160 16 160
WIRE 288 160 240 160
WIRE 672 192 672 96
WIRE 672 192 544 192
WIRE 704 192 672 192
WIRE 864 208 864 96
WIRE 864 208 768 208
WIRE 928 208 864 208
WIRE 16 224 16 160
WIRE 16 224 -144 224
WIRE 288 224 16 224
WIRE 704 224 672 224
WIRE 1200 256 1200 192
WIRE -144 272 -144 224
WIRE 16 288 16 224
WIRE 288 288 16 288
WIRE 672 320 672 224
WIRE 16 352 16 288
WIRE 288 352 16 352
WIRE 16 416 16 352
WIRE 288 416 16 416
WIRE 288 480 192 480
WIRE 1008 512 1008 480
WIRE 1104 512 1104 480
WIRE 288 544 192 544
WIRE 288 608 192 608
WIRE 1008 656 1008 592
WIRE 1104 656 1104 592
WIRE 352 736 352 656
WIRE 480 736 480 656
FLAG 1104 656 0
FLAG 1008 656 0
FLAG 1008 480 +VCC
FLAG 1104 480 -VCC
FLAG 672 320 VinAC
FLAG 928 208 out
FLAG 1200 256 0
FLAG 1200 64 VinAC
FLAG 352 736 -VCC
FLAG 480 736 0
FLAG -144 272 0
FLAG 192 608 0
FLAG 192 544 0
FLAG 416 -96 +VCC
FLAG 544 480 +VCC
FLAG 192 480 0
DATAFLAG 672 160 ""
SYMBOL res 832 80 R90
WINDOW 0 0 56 VBottom 2
WINDOW 3 32 56 VTop 2
SYMATTR InstName RF1
SYMATTR Value 10k
SYMBOL voltage 1008 496 R0
WINDOW 123 0 0 Left 0
WINDOW 39 0 0 Left 0
SYMATTR InstName V1
SYMATTR Value 5
SYMBOL voltage 1104 496 R0
WINDOW 123 0 0 Left 0
WINDOW 39 0 0 Left 0
SYMATTR InstName V2
SYMATTR Value -5
SYMBOL voltage 1200 96 R0
WINDOW 123 24 124 Left 2
WINDOW 39 0 0 Left 0
SYMATTR Value2 AC 1
SYMATTR InstName V7
SYMATTR Value ""
SYMBOL res 144 144 M90
WINDOW 0 2 47 VBottom 2
WINDOW 3 -22 116 VTop 2
SYMATTR InstName RG5
SYMATTR Value 3.3k
SYMBOL res 144 80 M90
WINDOW 0 0 48 VBottom 2
WINDOW 3 -19 109 VTop 2
SYMATTR InstName RG6
SYMATTR Value 4.7k
SYMBOL res 144 16 M90
WINDOW 0 8 44 VBottom 2
WINDOW 3 -19 110 VTop 2
SYMATTR InstName RG7
SYMATTR Value 6.66k
SYMBOL res 144 -48 M90
WINDOW 0 -24 45 VBottom 2
WINDOW 3 -24 102 VTop 2
SYMATTR InstName RG8
SYMATTR Value 10k
SYMBOL Switches\\ADG1608 416 224 R0
SYMATTR InstName U1
SYMBOL OpAmps\\opamp 736 144 R0
SYMATTR InstName U2
SYMATTR SpiceLine2 GBW=125Meg
TEXT 992 376 Left 2 ;Alimentare
TEXT 1072 -64 Left 2 ;Tensiunea de intrare
TEXT 760 -96 Left 2 !.ac dec 100 1 1G
TEXT 752 -152 Left 2 ;Amplificarea 1, sw 1 activ
TEXT 760 -40 Left 2 !.libopamp.sub
