Version 4.1
SHEET 1 900 680
WIRE -256 -208 -400 -208
WIRE -128 -208 -176 -208
WIRE -400 -144 -400 -208
WIRE -256 -144 -400 -144
WIRE -128 -144 -176 -144
WIRE -400 -80 -400 -144
WIRE -256 -80 -400 -80
WIRE -128 -80 -176 -80
WIRE 320 -80 256 -80
WIRE 448 -80 400 -80
WIRE 784 -64 784 -112
WIRE -400 -16 -400 -80
WIRE -256 -16 -400 -16
WIRE -128 -16 -176 -16
WIRE 256 16 256 -80
WIRE 256 16 128 16
WIRE 288 16 256 16
WIRE 448 32 448 -80
WIRE 448 32 352 32
WIRE 512 32 448 32
WIRE -400 48 -400 -16
WIRE -400 48 -560 48
WIRE -128 48 -400 48
WIRE 288 48 256 48
WIRE 784 80 784 16
WIRE -560 96 -560 48
WIRE -400 112 -400 48
WIRE -128 112 -400 112
WIRE 256 144 256 48
WIRE -400 176 -400 112
WIRE -128 176 -400 176
WIRE -400 240 -400 176
WIRE -128 240 -400 240
WIRE -128 304 -224 304
WIRE 592 336 592 304
WIRE 688 336 688 304
WIRE -128 368 -224 368
WIRE -128 432 -224 432
WIRE 592 480 592 416
WIRE 688 480 688 416
WIRE -64 560 -64 480
WIRE 64 560 64 480
FLAG 688 480 0
FLAG 592 480 0
FLAG 592 304 +VCC
FLAG 688 304 -VCC
FLAG 256 144 VinAC
FLAG 512 32 out
FLAG 784 80 0
FLAG 784 -112 VinAC
FLAG -64 560 -VCC
FLAG 64 560 0
FLAG -560 96 0
FLAG -224 432 0
FLAG -224 368 0
FLAG 0 -272 +VCC
FLAG 128 304 +VCC
FLAG -224 304 +VCC
DATAFLAG 256 -16 ""
SYMBOL res 416 -96 R90
WINDOW 0 0 56 VBottom 2
WINDOW 3 32 56 VTop 2
SYMATTR InstName RF1
SYMATTR Value 10k
SYMBOL voltage 592 320 R0
WINDOW 123 0 0 Left 0
WINDOW 39 0 0 Left 0
SYMATTR InstName V1
SYMATTR Value 5
SYMBOL voltage 688 320 R0
WINDOW 123 0 0 Left 0
WINDOW 39 0 0 Left 0
SYMATTR InstName V2
SYMATTR Value -5
SYMBOL voltage 784 -80 R0
WINDOW 123 24 124 Left 2
WINDOW 39 0 0 Left 0
SYMATTR Value2 AC 1
SYMATTR InstName V3
SYMATTR Value ""
SYMBOL res -272 -32 M90
WINDOW 0 2 47 VBottom 2
WINDOW 3 -22 116 VTop 2
SYMATTR InstName RG1
SYMATTR Value 3.3k
SYMBOL res -272 -96 M90
WINDOW 0 0 48 VBottom 2
WINDOW 3 -19 109 VTop 2
SYMATTR InstName RG2
SYMATTR Value 4.7k
SYMBOL res -272 -160 M90
WINDOW 0 8 44 VBottom 2
WINDOW 3 -19 110 VTop 2
SYMATTR InstName RG3
SYMATTR Value 6.66k
SYMBOL res -272 -224 M90
WINDOW 0 -24 45 VBottom 2
WINDOW 3 -24 102 VTop 2
SYMATTR InstName RG4
SYMATTR Value 10k
SYMBOL Switches\\ADG1608 0 48 R0
SYMATTR InstName U1
SYMBOL OpAmps\\opamp 320 -32 R0
SYMATTR InstName U2
SYMATTR SpiceLine2 GBW=125Meg
TEXT 576 200 Left 2 ;Alimentare
TEXT 656 -240 Left 2 ;Tensiunea de intrare
TEXT 344 -272 Left 2 !.ac dec 100 1 1G
TEXT 336 -328 Left 2 ;Amplificarea 2, sw 2 activ
TEXT 344 -216 Left 2 !.libopamp.sub
