Version 4.1
SHEET 1 880 680
WIRE -384 -272 -528 -272
WIRE -256 -272 -304 -272
WIRE -528 -208 -528 -272
WIRE -384 -208 -528 -208
WIRE -256 -208 -304 -208
WIRE -528 -144 -528 -208
WIRE -384 -144 -528 -144
WIRE -256 -144 -304 -144
WIRE 192 -144 128 -144
WIRE 320 -144 272 -144
WIRE 656 -128 656 -176
WIRE -528 -80 -528 -144
WIRE -384 -80 -528 -80
WIRE -256 -80 -304 -80
WIRE 128 -48 128 -144
WIRE 128 -48 0 -48
WIRE 160 -48 128 -48
WIRE 320 -32 320 -144
WIRE 320 -32 224 -32
WIRE 384 -32 320 -32
WIRE -528 -16 -528 -80
WIRE -528 -16 -688 -16
WIRE -256 -16 -528 -16
WIRE 160 -16 128 -16
WIRE 656 16 656 -48
WIRE -688 32 -688 -16
WIRE -528 48 -528 -16
WIRE -256 48 -528 48
WIRE 128 80 128 -16
WIRE -528 112 -528 48
WIRE -256 112 -528 112
WIRE -528 176 -528 112
WIRE -256 176 -528 176
WIRE -256 240 -352 240
WIRE 464 272 464 240
WIRE 560 272 560 240
WIRE -256 304 -352 304
WIRE -256 368 -352 368
WIRE 464 416 464 352
WIRE 560 416 560 352
WIRE -192 496 -192 416
WIRE -64 496 -64 416
FLAG 560 416 0
FLAG 464 416 0
FLAG 464 240 +VCC
FLAG 560 240 -VCC
FLAG 128 80 VinAC
FLAG 384 -32 out
FLAG 656 16 0
FLAG 656 -176 VinAC
FLAG -192 496 -VCC
FLAG -64 496 0
FLAG -688 32 0
FLAG -352 368 0
FLAG -128 -336 +VCC
FLAG 0 240 +VCC
FLAG -352 240 0
FLAG -352 304 +VCC
DATAFLAG 128 -80 ""
SYMBOL res 288 -160 R90
WINDOW 0 0 56 VBottom 2
WINDOW 3 32 56 VTop 2
SYMATTR InstName RF1
SYMATTR Value 10k
SYMBOL voltage 464 256 R0
WINDOW 123 0 0 Left 0
WINDOW 39 0 0 Left 0
SYMATTR InstName V1
SYMATTR Value 5
SYMBOL voltage 560 256 R0
WINDOW 123 0 0 Left 0
WINDOW 39 0 0 Left 0
SYMATTR InstName V2
SYMATTR Value -5
SYMBOL voltage 656 -144 R0
WINDOW 123 24 124 Left 2
WINDOW 39 0 0 Left 0
SYMATTR Value2 AC 1
SYMATTR InstName V3
SYMATTR Value ""
SYMBOL res -400 -96 M90
WINDOW 0 2 47 VBottom 2
WINDOW 3 -22 116 VTop 2
SYMATTR InstName RG1
SYMATTR Value 3.3k
SYMBOL res -400 -160 M90
WINDOW 0 0 48 VBottom 2
WINDOW 3 -19 109 VTop 2
SYMATTR InstName RG2
SYMATTR Value 4.7k
SYMBOL res -400 -224 M90
WINDOW 0 8 44 VBottom 2
WINDOW 3 -19 110 VTop 2
SYMATTR InstName RG3
SYMATTR Value 6.66k
SYMBOL res -400 -288 M90
WINDOW 0 -24 45 VBottom 2
WINDOW 3 -24 102 VTop 2
SYMATTR InstName RG4
SYMATTR Value 10k
SYMBOL Switches\\ADG1608 -128 -16 R0
SYMATTR InstName U1
SYMBOL OpAmps\\opamp 192 -96 R0
SYMATTR InstName U2
SYMATTR SpiceLine2 GBW=125Meg
TEXT 448 136 Left 2 ;Alimentare
TEXT 528 -304 Left 2 ;Tensiunea de intrare
TEXT 216 -336 Left 2 !.ac dec 100 1 1G
TEXT 208 -392 Left 2 ;Amplificarea 3, sw 3 activ
TEXT 216 -280 Left 2 !.libopamp.sub
