Version 4.1
SHEET 1 948 680
WIRE -208 -240 -352 -240
WIRE -80 -240 -128 -240
WIRE -352 -176 -352 -240
WIRE -208 -176 -352 -176
WIRE -80 -176 -128 -176
WIRE -352 -112 -352 -176
WIRE -208 -112 -352 -112
WIRE -80 -112 -128 -112
WIRE 368 -112 304 -112
WIRE 496 -112 448 -112
WIRE 832 -96 832 -144
WIRE -352 -48 -352 -112
WIRE -208 -48 -352 -48
WIRE -80 -48 -128 -48
WIRE 304 -16 304 -112
WIRE 304 -16 176 -16
WIRE 336 -16 304 -16
WIRE 496 0 496 -112
WIRE 496 0 400 0
WIRE 560 0 496 0
WIRE -352 16 -352 -48
WIRE -352 16 -512 16
WIRE -80 16 -352 16
WIRE 336 16 304 16
WIRE 832 48 832 -16
WIRE -512 64 -512 16
WIRE -352 80 -352 16
WIRE -80 80 -352 80
WIRE 304 112 304 16
WIRE -352 144 -352 80
WIRE -80 144 -352 144
WIRE -352 208 -352 144
WIRE -80 208 -352 208
WIRE -80 272 -176 272
WIRE 640 304 640 272
WIRE 736 304 736 272
WIRE -80 336 -176 336
WIRE -80 400 -176 400
WIRE 640 448 640 384
WIRE 736 448 736 384
WIRE -16 528 -16 448
WIRE 112 528 112 448
FLAG 736 448 0
FLAG 640 448 0
FLAG 640 272 +VCC
FLAG 736 272 -VCC
FLAG 304 112 VinAC
FLAG 560 0 out
FLAG 832 48 0
FLAG 832 -144 VinAC
FLAG -16 528 -VCC
FLAG 112 528 0
FLAG -512 64 0
FLAG -176 400 0
FLAG 48 -304 +VCC
FLAG 176 272 +VCC
FLAG -176 272 +VCC
FLAG -176 336 +VCC
DATAFLAG 304 -48 ""
SYMBOL res 464 -128 R90
WINDOW 0 0 56 VBottom 2
WINDOW 3 32 56 VTop 2
SYMATTR InstName RF1
SYMATTR Value 10k
SYMBOL voltage 640 288 R0
WINDOW 123 0 0 Left 0
WINDOW 39 0 0 Left 0
SYMATTR InstName V1
SYMATTR Value 5
SYMBOL voltage 736 288 R0
WINDOW 123 0 0 Left 0
WINDOW 39 0 0 Left 0
SYMATTR InstName V2
SYMATTR Value -5
SYMBOL voltage 832 -112 R0
WINDOW 123 24 124 Left 2
WINDOW 39 0 0 Left 0
SYMATTR Value2 AC 1
SYMATTR InstName V3
SYMATTR Value ""
SYMBOL res -224 -64 M90
WINDOW 0 2 47 VBottom 2
WINDOW 3 -22 116 VTop 2
SYMATTR InstName RG1
SYMATTR Value 3.3k
SYMBOL res -224 -128 M90
WINDOW 0 0 48 VBottom 2
WINDOW 3 -19 109 VTop 2
SYMATTR InstName RG2
SYMATTR Value 4.7k
SYMBOL res -224 -192 M90
WINDOW 0 8 44 VBottom 2
WINDOW 3 -19 110 VTop 2
SYMATTR InstName RG3
SYMATTR Value 6.66k
SYMBOL res -224 -256 M90
WINDOW 0 -24 45 VBottom 2
WINDOW 3 -24 102 VTop 2
SYMATTR InstName RG4
SYMATTR Value 10k
SYMBOL Switches\\ADG1608 48 16 R0
SYMATTR InstName U1
SYMBOL OpAmps\\opamp 368 -64 R0
SYMATTR InstName U2
SYMATTR SpiceLine2 GBW=125Meg
TEXT 624 168 Left 2 ;Alimentare
TEXT 704 -272 Left 2 ;Tensiunea de intrare
TEXT 392 -304 Left 2 !.ac dec 100 1 1G
TEXT 384 -360 Left 2 ;Amplificarea 4, sw 4 activ
TEXT 392 -248 Left 2 !.libopamp.sub
