Version 4.1
SHEET 1 996 680
WIRE -272 -256 -416 -256
WIRE -144 -256 -192 -256
WIRE -416 -192 -416 -256
WIRE -272 -192 -416 -192
WIRE -144 -192 -192 -192
WIRE -416 -128 -416 -192
WIRE -272 -128 -416 -128
WIRE -144 -128 -192 -128
WIRE 304 -128 240 -128
WIRE 432 -128 384 -128
WIRE 768 -112 768 -160
WIRE -416 -64 -416 -128
WIRE -272 -64 -416 -64
WIRE -144 -64 -192 -64
WIRE 240 -32 240 -128
WIRE 240 -32 112 -32
WIRE 272 -32 240 -32
WIRE 432 -16 432 -128
WIRE 432 -16 336 -16
WIRE 496 -16 432 -16
WIRE -416 0 -416 -64
WIRE -416 0 -576 0
WIRE -144 0 -416 0
WIRE 272 0 240 0
WIRE 768 32 768 -32
WIRE -576 48 -576 0
WIRE -416 64 -416 0
WIRE -144 64 -416 64
WIRE 240 96 240 0
WIRE -416 128 -416 64
WIRE -144 128 -416 128
WIRE -416 192 -416 128
WIRE -144 192 -416 192
WIRE -144 256 -240 256
WIRE 576 288 576 256
WIRE 672 288 672 256
WIRE -144 320 -240 320
WIRE -144 384 -240 384
WIRE 576 432 576 368
WIRE 672 432 672 368
WIRE -80 512 -80 432
WIRE 48 512 48 432
FLAG 672 432 0
FLAG 576 432 0
FLAG 576 256 +VCC
FLAG 672 256 -VCC
FLAG 240 96 Vin_Min
FLAG 496 -16 out
FLAG 768 32 0
FLAG 768 -160 Vin_Min
FLAG -80 512 -VCC
FLAG 48 512 0
FLAG -576 48 0
FLAG -240 384 0
FLAG -16 -320 +VCC
FLAG 112 256 +VCC
FLAG -240 256 +VCC
FLAG -240 320 +VCC
DATAFLAG 240 -64 ""
SYMBOL res 400 -144 R90
WINDOW 0 0 56 VBottom 2
WINDOW 3 32 56 VTop 2
SYMATTR InstName RF1
SYMATTR Value 10k
SYMBOL voltage 576 272 R0
WINDOW 123 0 0 Left 0
WINDOW 39 0 0 Left 0
SYMATTR InstName V1
SYMATTR Value 5
SYMBOL voltage 672 272 R0
WINDOW 123 0 0 Left 0
WINDOW 39 0 0 Left 0
SYMATTR InstName V2
SYMATTR Value -5
SYMBOL voltage 768 -128 R0
WINDOW 123 24 124 Left 2
WINDOW 39 0 0 Left 0
WINDOW 3 24 152 Left 2
SYMATTR Value SINE(0 882m 3K)
SYMATTR InstName V3
SYMBOL res -288 -80 M90
WINDOW 0 2 47 VBottom 2
WINDOW 3 -22 116 VTop 2
SYMATTR InstName RG1
SYMATTR Value 3.3k
SYMBOL res -288 -144 M90
WINDOW 0 0 48 VBottom 2
WINDOW 3 -19 109 VTop 2
SYMATTR InstName RG2
SYMATTR Value 4.7k
SYMBOL res -288 -208 M90
WINDOW 0 8 44 VBottom 2
WINDOW 3 -19 110 VTop 2
SYMATTR InstName RG3
SYMATTR Value 6.66k
SYMBOL res -288 -272 M90
WINDOW 0 -24 45 VBottom 2
WINDOW 3 -24 102 VTop 2
SYMATTR InstName RG4
SYMATTR Value 10k
SYMBOL Switches\\ADG1608 -16 0 R0
SYMATTR InstName U1
SYMBOL OpAmps\\opamp 304 -80 R0
SYMATTR InstName U2
SYMATTR SpiceLine2 GBW=125Meg
TEXT 560 152 Left 2 ;Alimentare
TEXT 640 -288 Left 2 ;Tensiunea de intrare
TEXT 320 -376 Left 2 ;Amplificarea 4, sw 4 activ
TEXT 312 -312 Left 2 !.libopamp.sub
TEXT 312 -288 Left 2 !.tran 30m
TEXT 312 -256 Left 2 !.four 3k 10-1 V(out)
