Version 4.1
SHEET 1 948 680
WIRE -320 -208 -464 -208
WIRE -192 -208 -240 -208
WIRE -464 -144 -464 -208
WIRE -320 -144 -464 -144
WIRE -192 -144 -240 -144
WIRE -464 -80 -464 -144
WIRE -320 -80 -464 -80
WIRE -192 -80 -240 -80
WIRE 256 -80 192 -80
WIRE 384 -80 336 -80
WIRE 720 -64 720 -112
WIRE -464 -16 -464 -80
WIRE -320 -16 -464 -16
WIRE -192 -16 -240 -16
WIRE 192 16 192 -80
WIRE 192 16 64 16
WIRE 224 16 192 16
WIRE 384 32 384 -80
WIRE 384 32 288 32
WIRE 448 32 384 32
WIRE -464 48 -464 -16
WIRE -464 48 -624 48
WIRE -192 48 -464 48
WIRE 224 48 192 48
WIRE 720 80 720 16
WIRE -624 96 -624 48
WIRE -464 112 -464 48
WIRE -192 112 -464 112
WIRE 192 144 192 48
WIRE -464 176 -464 112
WIRE -192 176 -464 176
WIRE -464 240 -464 176
WIRE -192 240 -464 240
WIRE -192 304 -288 304
WIRE 528 336 528 304
WIRE 624 336 624 304
WIRE -192 368 -288 368
WIRE -192 432 -288 432
WIRE 528 480 528 416
WIRE 624 480 624 416
WIRE -128 560 -128 480
WIRE 0 560 0 480
FLAG 624 480 0
FLAG 528 480 0
FLAG 528 304 +VCC
FLAG 624 304 -VCC
FLAG 192 144 Vin_Max
FLAG 448 32 out
FLAG 720 80 0
FLAG 720 -112 Vin_Max
FLAG -128 560 -VCC
FLAG 0 560 0
FLAG -624 96 0
FLAG -288 432 0
FLAG -288 368 0
FLAG -64 -272 +VCC
FLAG 64 304 +VCC
FLAG -288 304 0
DATAFLAG 192 -16 ""
SYMBOL res 352 -96 R90
WINDOW 0 0 56 VBottom 2
WINDOW 3 32 56 VTop 2
SYMATTR InstName RF1
SYMATTR Value 10k
SYMBOL voltage 528 320 R0
WINDOW 123 0 0 Left 0
WINDOW 39 0 0 Left 0
SYMATTR InstName V1
SYMATTR Value 5
SYMBOL voltage 624 320 R0
WINDOW 123 0 0 Left 0
WINDOW 39 0 0 Left 0
SYMATTR InstName V2
SYMATTR Value -5
SYMBOL voltage 720 -80 R0
WINDOW 123 24 124 Left 2
WINDOW 39 0 0 Left 0
WINDOW 3 24 152 Left 2
SYMATTR Value SINE(0 1.752 3k)
SYMATTR InstName V3
SYMBOL res -336 -32 M90
WINDOW 0 2 47 VBottom 2
WINDOW 3 -22 116 VTop 2
SYMATTR InstName RG1
SYMATTR Value 3.3k
SYMBOL res -336 -96 M90
WINDOW 0 0 48 VBottom 2
WINDOW 3 -19 109 VTop 2
SYMATTR InstName RG2
SYMATTR Value 4.7k
SYMBOL res -336 -160 M90
WINDOW 0 8 44 VBottom 2
WINDOW 3 -19 110 VTop 2
SYMATTR InstName RG3
SYMATTR Value 6.66k
SYMBOL res -336 -224 M90
WINDOW 0 -24 45 VBottom 2
WINDOW 3 -24 102 VTop 2
SYMATTR InstName RG4
SYMATTR Value 10k
SYMBOL Switches\\ADG1608 -64 48 R0
SYMATTR InstName U1
SYMBOL OpAmps\\opamp 256 -32 R0
SYMATTR InstName U2
SYMATTR SpiceLine2 GBW=125Meg
TEXT 512 200 Left 2 ;Alimentare
TEXT 592 -240 Left 2 ;Tensiunea de intrare
TEXT 272 -328 Left 2 ;Amplificarea 1, sw 1 activ
TEXT 280 -216 Left 2 !.libopamp.sub
TEXT 288 -272 Left 2 !.tran 30m
TEXT 288 -248 Left 2 !.four 3k 10-1 V(out)
